10

N    0.00000     0.00000    -1.12353
C    0.00000     1.12657    -0.33255
C    0.00000     0.71351     0.98524
C    0.00000    -0.71351     0.98524
C    0.00000    -1.12657    -0.33255
H    0.00000    -2.11559    -0.76859
H    0.00000     2.11559    -0.76859
H    0.00000     1.36244     1.85114
H    0.00000     0.00000    -2.13256
H    0.00000    -1.36244     1.85114